
 OpenBabel07092016103D

 47 50  0  0  1  0  0  0  0  0999 V2000
   -1.1610    1.2033   -3.0364 C   0  0  0  0  0  0  0  0  0  0  0  0
   -1.6500    2.5218   -3.6785 C   0  0  1  0  0  0  0  0  0  0  0  0
   -2.1150    1.2655   -5.8818 C   0  0  0  0  0  0  0  0  0  0  0  0
   -1.8255    1.1552   -7.4012 C   0  0  0  0  0  0  0  0  0  0  0  0
   -2.1243    2.4811   -8.1005 C   0  0  1  0  0  0  0  0  0  0  0  0
   -1.2809    3.5684   -7.4248 C   0  0  1  0  0  0  0  0  0  0  0  0
   -1.3846    4.7595   -8.4004 C   0  0  0  0  0  0  0  0  0  0  0  0
   -1.4743    4.0944   -9.7931 C   0  0  0  0  0  0  0  0  0  0  0  0
   -1.5937    2.5893   -9.5337 C   0  0  2  0  0  0  0  0  0  0  0  0
   -3.6406    2.7775   -8.0957 C   0  0  0  0  0  0  0  0  0  0  0  0
   -3.1779    2.7588   -3.3940 C   0  0  0  0  0  0  0  0  0  0  0  0
   -1.0116    1.3145   -1.5093 C   0  0  0  0  0  0  0  0  0  0  0  0
   -0.0689    2.4159   -1.1582 C   0  0  0  0  0  0  0  0  0  0  0  0
   -0.1334    3.6057   -1.9871 C   0  0  0  0  0  0  0  0  0  0  0  0
   -0.8637    3.6902   -3.1113 C   0  0  0  0  0  0  0  0  0  0  0  0
   -0.9850    4.9968   -3.8243 C   0  0  0  0  0  0  0  0  0  0  0  0
   -0.7180    4.8473   -5.3285 C   0  0  0  0  0  0  0  0  0  0  0  0
   -1.6041    3.7700   -5.9456 C   0  0  2  0  0  0  0  0  0  0  0  0
   -1.3892    2.4372   -5.2150 C   0  0  1  0  0  0  0  0  0  0  0  0
   -1.7772    0.5062   -3.2054 H   0  0  0  0  0  0  0  0  0  0  0  0
   -0.6328    0.5054   -1.2161 H   0  0  0  0  0  0  0  0  0  0  0  0
    0.3271    4.4180   -1.7043 H   0  0  0  0  0  0  0  0  0  0  0  0
   -0.3257    5.7422   -3.4551 H   0  0  0  0  0  0  0  0  0  0  0  0
    0.3566    4.6116   -5.5040 H   0  0  0  0  0  0  0  0  0  0  0  0
   -2.6008    4.0706   -5.7459 H   0  0  0  0  0  0  0  0  0  0  0  0
   -0.4270    2.1090   -5.3538 H   0  0  0  0  0  0  0  0  0  0  0  0
   -3.1237    1.3898   -5.5813 H   0  0  0  0  0  0  0  0  0  0  0  0
   -0.7717    0.9508   -7.5905 H   0  0  0  0  0  0  0  0  0  0  0  0
   -0.3533    3.1821   -7.4701 H   0  0  0  0  0  0  0  0  0  0  0  0
   -2.2459    5.2311   -8.2069 H   0  0  0  0  0  0  0  0  0  0  0  0
   -0.6258    2.2264   -9.4396 H   0  0  0  0  0  0  0  0  0  0  0  0
   -4.3106    2.1568   -8.6498 H   0  0  0  0  0  0  0  0  0  0  0  0
   -3.2223    2.8954   -2.4002 H   0  0  0  0  0  0  0  0  0  0  0  0
   -1.7755    0.6001   -5.4002 H   0  0  0  0  0  0  0  0  0  0  0  0
   -2.4501    0.5013   -7.7916 H   0  0  0  0  0  0  0  0  0  0  0  0
   -1.9018    5.4765   -3.7566 H   0  0  0  0  0  0  0  0  0  0  0  0
   -0.7369    5.6904   -5.7536 H   0  0  0  0  0  0  0  0  0  0  0  0
   -0.2101    0.9638   -3.5401 H   0  0  0  0  0  0  0  0  0  0  0  0
   -1.8569    1.5121   -0.9764 H   0  0  0  0  0  0  0  0  0  0  0  0
   -0.5058    5.3332   -8.2522 H   0  0  0  0  0  0  0  0  0  0  0  0
   -4.1893    3.0047   -7.1840 H   0  0  0  0  0  0  0  0  0  0  0  0
   -3.6193    1.9097   -3.7146 H   0  0  0  0  0  0  0  0  0  0  0  0
   -3.6663    3.5482   -8.6962 H   0  0  0  0  0  0  0  0  0  0  0  0
   -3.3248    3.5700   -4.0305 H   0  0  0  0  0  0  0  0  0  0  0  0
    0.6629    2.3554   -0.1726 O   0  0  0  0  0  0  0  0  0  0  0  0
   -2.4160    1.9893  -10.5511 O   0  0  0  0  0  0  0  0  0  0  0  0
   -2.0022    2.1180  -11.4189 H   0  0  0  0  0  0  0  0  0  0  0  0
  1  2  1  0  0  0  0
  2 11  1  1  0  0  0
  3  4  1  0  0  0  0
  3 19  1  0  0  0  0
  4  5  1  0  0  0  0
  5  6  1  0  0  0  0
  5 10  1  1  0  0  0
  6  7  1  0  0  0  0
  6 29  1  6  0  0  0
  7  8  1  0  0  0  0
  8  9  1  0  0  0  0
  9  5  1  0  0  0  0
  9 31  1  6  0  0  0
 11 33  1  0  0  0  0
 12  1  1  0  0  0  0
 13 12  1  0  0  0  0
 14 13  1  0  0  0  0
 14 15  2  0  0  0  0
 15  2  1  0  0  0  0
 16 15  1  0  0  0  0
 17 16  1  0  0  0  0
 17 18  1  0  0  0  0
 18  6  1  0  0  0  0
 18 25  1  1  0  0  0
 18 19  1  0  0  0  0
 19  2  1  0  0  0  0
 19 26  1  6  0  0  0
 20  1  1  0  0  0  0
 21 12  1  0  0  0  0
 22 14  1  0  0  0  0
 23 16  1  0  0  0  0
 24 17  1  0  0  0  0
 27  3  1  0  0  0  0
 28  4  1  0  0  0  0
 30  7  1  0  0  0  0
 32 10  1  0  0  0  0
 34  3  1  0  0  0  0
 35  4  1  0  0  0  0
 36 16  1  0  0  0  0
 37 17  1  0  0  0  0
 38  1  1  0  0  0  0
 39 12  1  0  0  0  0
 40  7  1  0  0  0  0
 41 10  1  0  0  0  0
 42 11  1  0  0  0  0
 43 10  1  0  0  0  0
 44 11  1  0  0  0  0
 45 13  2  0  0  0  0
 46  9  1  0  0  0  0
 46 47  1  0  0  0  0
M  END
